studies/australian_pv/source/MV21_328bus/Linecodes.dss

New Linecode.generic/lv nphases=4  Units=kft
~ Rmatrix=[0.0457424  |0.0150133  0.0457424  |0.0150139  0.0150139  0.0457435  |0.0150139  0.0150139  0.0150144  0.0457435  ]
~ Xmatrix=[0.222792  |0.193641  0.222792  |0.187003  0.19364  0.222791  |0.19364  0.187003  0.19364  0.222791  ]
~ Cmatrix=[10.062  |-4.33632  10.062  |-0.403153  -4.32398  10.0875  |-4.32398  -0.403153  -4.31102  10.0875  ]

New Linecode.generic/hv nphases=3  Units=kft
~ Rmatrix=[0.0610709  |0.0148865  0.0610709  |0.0148864  0.0148865  0.0610709  ]
~ Xmatrix=[0.225365  |0.130748  0.225365  |0.117473  0.130748  0.225365  ]
~ Cmatrix=[2.76652  |-0.794874  2.93895  |-0.393447  -0.794874  2.76652  ]

New Linecode.uglv_4cu_xlpe/pvc_ug_4w_bundled nphases=4  Units=kft
~ Rmatrix=[1.3926  |0.0150143  1.3926  |0.0150143  0.0150143  1.3926  |0.0150143  0.0150143  0.0150144  1.3926  ]
~ Xmatrix=[0.264871  |0.235719  0.264871  |0.229082  0.235719  0.264871  |0.235719  0.229082  0.235719  0.264871  ]
~ Cmatrix=[9.98408  |-4.41305  9.98408  |-0.489998  -4.41211  9.98596  |-4.41211  -0.489998  -4.41117  9.98596  ]

New Linecode.moon_hv_oh_3wire nphases=3  Units=km
~ Rmatrix=[0.327567  |0.0488401  0.327567  |0.04884  0.0488401  0.327567  ]
~ Xmatrix=[0.761089  |0.428963  0.761089  |0.385411  0.428963  0.761089  ]
~ Cmatrix=[8.54723  |-2.34819  9.0258  |-1.19311  -2.34819  8.54723  ]

New Linecode.moon_lv_oh_4wire nphases=4  Units=km
~ Rmatrix=[0.327567  |0.0488401  0.327567  |0.0488401  0.0488402  0.327567  |0.0488402  0.0488401  0.04884  0.327567  ]
~ Xmatrix=[0.761089  |0.441571  0.761089  |0.407415  0.462018  0.761089  |0.462018  0.407415  0.385411  0.761089  ]
~ Cmatrix=[9.72626  |-2.10451  9.72626  |-1.16793  -2.95299  9.18503  |-2.95299  -1.16793  -0.824652  9.18503  ]

New Linecode.ughv_400al_triplex_ug_4w_bundled nphases=4  Units=kft
~ Rmatrix=[0.0457424  |0.0150133  0.0457424  |0.0150139  0.0150139  0.0457435  |0.0150139  0.0150139  0.0150144  0.0457435  ]
~ Xmatrix=[0.222792  |0.193641  0.222792  |0.187003  0.19364  0.222791  |0.19364  0.187003  0.19364  0.222791  ]
~ Cmatrix=[10.062  |-4.33632  10.062  |-0.403153  -4.32398  10.0875  |-4.32398  -0.403153  -4.31102  10.0875  ]

New Linecode.uglv_4cu_xlpe/pvc_ug_2w_bundled nphases=2  Units=kft
~ Rmatrix=[1.3926  |0.0150144  1.3926  ]
~ Xmatrix=[0.264871  |0.235719  0.264871  ]
~ Cmatrix=[7.29497  |-6.03368  7.29497  ]

New Linecode.ugsc_16cu_xlpe/nyl/pvc_ug_4w_bundled nphases=4  Units=kft
~ Rmatrix=[0.454302  |0.0150141  0.454302  |0.0150143  0.0150143  0.454302  |0.0150143  0.0150143  0.0150144  0.454302  ]
~ Xmatrix=[0.252757  |0.219523  0.252757  |0.212885  0.219523  0.252757  |0.219523  0.212885  0.219522  0.252757  ]
~ Cmatrix=[8.53986  |-3.53295  8.53986  |-0.713991  -3.53076  8.54427  |-3.53076  -0.713991  -3.52854  8.54427  ]

New Linecode.ughv_400al_triplex_ug_3w_bundled nphases=3  Units=kft
~ Rmatrix=[0.0457435  |0.0150139  0.0457425  |0.0150139  0.0150135  0.0457425  ]
~ Xmatrix=[0.222791  |0.193641  0.222792  |0.193641  0.193641  0.222792  ]
~ Cmatrix=[9.34604  |-4.00338  9.3099  |-4.00338  -4.02078  9.3099  ]


New Linecode.uglv_240al_xlpe/nyl/pvc_ug_4w_bundled nphases=4  Units=kft
~ Rmatrix=[0.0635805  |0.0150137  0.0635805  |0.015014  0.015014  0.0635812  |0.015014  0.015014  0.0150144  0.0635812  ]
~ Xmatrix=[0.227024  |0.20176  0.227024  |0.195122  0.201759  0.227023  |0.201759  0.195122  0.201759  0.227023  ]
~ Cmatrix=[12.0819  |-5.63977  12.0819  |0.112212  -5.63117  12.0995  |-5.63117  0.112212  -5.62224  12.0995  ]


New Linecode.ughv_400al_triplex_ug_4w_bundled nphases=4  Units=kft
~ Rmatrix=[0.0457424  |0.0150133  0.0457424  |0.0150139  0.0150139  0.0457435  |0.0150139  0.0150139  0.0150144  0.0457435  ]
~ Xmatrix=[0.222792  |0.193641  0.222792  |0.187003  0.19364  0.222791  |0.19364  0.187003  0.19364  0.222791  ]
~ Cmatrix=[10.062  |-4.33632  10.062  |-0.403153  -4.32398  10.0875  |-4.32398  -0.403153  -4.31102  10.0875  ]


New Linecode.ugsc_16cu_xlpe/nyl/pvc_ug_4w_bundled nphases=4  Units=kft
~ Rmatrix=[0.454302  |0.0150141  0.454302  |0.0150143  0.0150143  0.454302  |0.0150143  0.0150143  0.0150144  0.454302  ]
~ Xmatrix=[0.252757  |0.219523  0.252757  |0.212885  0.219523  0.252757  |0.219523  0.212885  0.219522  0.252757  ]
~ Cmatrix=[8.53986  |-3.53295  8.53986  |-0.713991  -3.53076  8.54427  |-3.53076  -0.713991  -3.52854  8.54427  ]

New Linecode.uglv_240al_xlpe/nyl/pvc_ug_3w_bundled nphases=3  Units=kft
~ Rmatrix=[0.0635812  |0.0150141  0.0635806  |0.0150141  0.0150138  0.0635806  ]
~ Xmatrix=[0.227023  |0.20176  0.227024  |0.20176  0.201759  0.227024  ]
~ Cmatrix=[10.9935  |-4.88048  10.9672  |-4.88048  -4.89305  10.9672  ]

New Linecode.uglv_240al_xlpe/nyl/pvc_ug_4w_bundled nphases=4  Units=kft
~ Rmatrix=[0.0635805  |0.0150137  0.0635805  |0.015014  0.015014  0.0635812  |0.015014  0.015014  0.0150144  0.0635812  ]
~ Xmatrix=[0.227024  |0.20176  0.227024  |0.195122  0.201759  0.227023  |0.201759  0.195122  0.201759  0.227023  ]
~ Cmatrix=[12.0819  |-5.63977  12.0819  |0.112212  -5.63117  12.0995  |-5.63117  0.112212  -5.62224  12.0995  ]

New Linecode.uglv_120cu_xlpe/nyl/pvc_ug_4w_bundled nphases=4  Units=kft
~ Rmatrix=[0.0740117  |0.0150139  0.0740117  |0.0150141  0.0150141  0.0740122  |0.0150141  0.0150141  0.0150144  0.0740122  ]
~ Xmatrix=[0.233096  |0.206985  0.233096  |0.200348  0.206985  0.233096  |0.206985  0.200348  0.206985  0.233096  ]
~ Cmatrix=[11.5506  |-5.31262  11.5506  |-0.05814  -5.30658  11.5629  |-5.30658  -0.05814  -5.30038  11.5629  ]

New Linecode.ugsc_16cu_xlpe/nyl/pvc_ug_4w_bundled nphases=4  Units=kft
~ Rmatrix=[0.454302  |0.0150141  0.454302  |0.0150143  0.0150143  0.454302  |0.0150143  0.0150143  0.0150144  0.454302  ]
~ Xmatrix=[0.252757  |0.219523  0.252757  |0.212885  0.219523  0.252757  |0.219523  0.212885  0.219522  0.252757  ]
~ Cmatrix=[8.53986  |-3.53295  8.53986  |-0.713991  -3.53076  8.54427  |-3.53076  -0.713991  -3.52854  8.54427  ]

New Linecode.ughv_240cu_xlpe/nyl/pvc_ug_4w_bundled nphases=4  Units=kft
~ Rmatrix=[0.0445571  |0.0150133  0.0445571  |0.0150139  0.0150139  0.0445582  |0.0150139  0.0150139  0.0150144  0.0445582  ]
~ Xmatrix=[0.22692  |0.193758  0.22692  |0.18712  0.193758  0.226919  |0.193758  0.18712  0.193757  0.226919  ]
~ Cmatrix=[8.61482  |-3.49323  8.61482  |-0.651429  -3.48249  8.63692  |-3.48249  -0.651429  -3.47126  8.63692  ]

New Linecode.abc4x16_lv_oh_4w_bundled nphases=4  Units=kft
~ Rmatrix=[0.723706  |0.0148863  0.723706  |0.0148864  0.0148864  0.723707  |0.0148864  0.0148864  0.0148865  0.723707  ]
~ Xmatrix=[0.252492  |0.226277  0.252492  |0.21964  0.226277  0.252491  |0.226277  0.21964  0.226277  0.252491  ]
~ Cmatrix=[11.4153  |-5.349  11.4153  |-0.15569  -5.34876  11.4158  |-5.34876  -0.15569  -5.34851  11.4158  ]

New Linecode.uglv_240al_xlpe/nyl/pvc_ug_4w_bundled nphases=4  Units=kft
~ Rmatrix=[0.0635805  |0.0150137  0.0635805  |0.015014  0.015014  0.0635812  |0.015014  0.015014  0.0150144  0.0635812  ]
~ Xmatrix=[0.227024  |0.20176  0.227024  |0.195122  0.201759  0.227023  |0.201759  0.195122  0.201759  0.227023  ]
~ Cmatrix=[12.0819  |-5.63977  12.0819  |0.112212  -5.63117  12.0995  |-5.63117  0.112212  -5.62224  12.0995  ]

New Linecode.ughv_240al_triplex_ug_3w_bundled nphases=3  Units=kft
~ Rmatrix=[0.0632834  |0.015014  0.0632826  |0.015014  0.0150136  0.0632826  ]
~ Xmatrix=[0.227465  |0.196538  0.227466  |0.196538  0.196538  0.227466  ]
~ Cmatrix=[8.71889  |-3.71973  8.69105  |-3.71973  -3.73318  8.69105  ]

New Linecode.pluto_lv_oh_3wire nphases=3  Units=kft
~ Rmatrix=[0.0652407  |0.0148865  0.0652407  |0.0148864  0.0148865  0.0652407  ]
~ Xmatrix=[0.22674  |0.130748  0.22674  |0.117473  0.130748  0.22674  ]
~ Cmatrix=[2.73125  |-0.777305  2.89764  |-0.386978  -0.777305  2.73125  ]

New Linecode.ughv_400al_xlpe/nyl/pvc_ug_3w_bundled nphases=3  Units=kft
~ Rmatrix=[0.0454471  |0.0150139  0.045446  |0.0150139  0.0150133  0.045446  ]
~ Xmatrix=[0.222501  |0.191455  0.222502  |0.191455  0.191455  0.222502  ]
~ Cmatrix=[8.71408  |-3.67439  8.6759  |-3.67439  -3.69279  8.6759  ]

New Linecode.abc4x95_lv_oh_4w_bundled nphases=4  Units=kft
~ Rmatrix=[0.133882  |0.0148861  0.133882  |0.0148863  0.0148863  0.133882  |0.0148863  0.0148863  0.0148865  0.133882  ]
~ Xmatrix=[0.235499  |0.212624  0.235499  |0.205986  0.212623  0.235498  |0.212623  0.205986  0.212623  0.235498  ]
~ Cmatrix=[13.8128  |-6.9345  13.8128  |0.679407  -6.93387  13.814  |-6.93387  0.679407  -6.93323  13.814  ]

New Linecode.ughv_240cu_xlpe/nyl/pvc_ug_3w_bundled nphases=3  Units=kft
~ Rmatrix=[0.0445582  |0.0150139  0.0445572  |0.0150139  0.0150135  0.0445572  ]
~ Xmatrix=[0.226919  |0.193758  0.22692  |0.193758  0.193758  0.22692  ]
~ Cmatrix=[8.07821  |-3.38354  8.04794  |-3.38354  -3.39819  8.04794  ]

New Linecode.ughv_240cu_hdpe/nyl/pvc_ug_3w_bundled nphases=3  Units=kft
~ Rmatrix=[0.0445582  |0.0150138  0.0445571  |0.0150138  0.0150133  0.0445571  ]
~ Xmatrix=[0.226919  |0.1904  0.22692  |0.1904  0.1904  0.22692  ]
~ Cmatrix=[7.28395  |-2.9683  7.25098  |-2.9683  -2.98427  7.25098  ]

New Linecode.ughv_95al_xlpe/nyl/pvc_ug_3w_bundled nphases=3  Units=kft
~ Rmatrix=[0.137893  |0.015014  0.137892  |0.015014  0.0150136  0.137892  ]
~ Xmatrix=[0.236024  |0.197601  0.236025  |0.197601  0.197601  0.236025  ]
~ Cmatrix=[6.85077  |-2.81434  6.83114  |-2.81434  -2.82389  6.83114  ]

New Linecode.uglv_185cu_xlpe/nyl/pvc_ug_4w_bundled nphases=4  Units=kft
~ Rmatrix=[0.0585189  |0.0150138  0.0585189  |0.0150141  0.0150141  0.0585196  |0.0150141  0.0150141  0.0150144  0.0585196  ]
~ Xmatrix=[0.229581  |0.203793  0.229581  |0.197156  0.203793  0.22958  |0.203793  0.197156  0.203792  0.22958  ]
~ Cmatrix=[11.7499  |-5.43041  11.7499  |0.0062967  -5.42297  11.7651  |-5.42297  0.0062967  -5.41529  11.7651  ]

New Linecode.ughv_95al_xlpe/nyl/pvc_ug_3w_bundled nphases=3  Units=kft
~ Rmatrix=[0.137893  |0.015014  0.137892  |0.015014  0.0150136  0.137892  ]
~ Xmatrix=[0.236024  |0.197601  0.236025  |0.197601  0.197601  0.236025  ]
~ Cmatrix=[6.85077  |-2.81434  6.83114  |-2.81434  -2.82389  6.83114  ]

New Linecode.uglv_185cu_xlpe/sw/pvc_ug_4w_bundled nphases=4  Units=kft
~ Rmatrix=[0.0585187  |0.0150135  0.0585187  |0.015014  0.015014  0.0585196  |0.015014  0.015014  0.0150144  0.0585196  ]
~ Xmatrix=[0.229581  |0.197601  0.229581  |0.190963  0.1976  0.22958  |0.1976  0.190963  0.1976  0.22958  ]
~ Cmatrix=[8.98289  |-3.71647  8.98289  |-0.608851  -3.70769  9.00087  |-3.70769  -0.608851  -3.69856  9.00087  ]


